test_data/ep/opendss/34Bus/ieee34-1_Curr_Elem.Txt

CIRCUIT ELEMENT CURRENTS

(Currents into element from indicated bus)

Power Delivery Elements

  Bus     Phase    Magnitude, A     Angle      (Real)   +j  (Imag)

ELEMENT = "Vsource.SOURCE"
SOURCEBUS     1           16.787 /_ -162.8 =    -16.033 +j   -4.9757
SOURCEBUS     2           14.907 /_   83.4 =      1.713 +j    14.808
SOURCEBUS     3            17.37 /_  -34.5 =      14.32 +j   -9.8321
------------
SOURCEBUS     0           16.787 /_   17.2 =     16.033 +j    4.9757
SOURCEBUS     0           14.907 /_  -96.6 =     -1.713 +j   -14.808
SOURCEBUS     0            17.37 /_  145.5 =     -14.32 +j    9.8321

ELEMENT = "Transformer.SUBXF"
SOURCEBUS     1           16.787 /_   17.2 =     16.033 +j    4.9757
SOURCEBUS     2           14.907 /_  -96.6 =     -1.713 +j   -14.808
SOURCEBUS     3            17.37 /_  145.5 =     -14.32 +j    9.8321
SOURCEBUS     0                0 /_    0.0 =          0 +j         0
SOURCEBUS Resid      2.9104E-010 /_   36.9 =   2.3283E-010 +j 1.7462E-010
------------
800           1           51.182 /_  167.3 =    -49.939 +j    11.214
800           2           44.289 /_   52.4 =     27.014 +j    35.096
800           3           40.589 /_  -62.4 =     18.793 +j   -35.976
800           0            11.13 /_  -68.2 =     4.1325 +j   -10.335
800       Resid      9.3857E-010 /_ -150.3 =   -8.1491E-010 +j -4.6566E-010

ELEMENT = "Line.L1"
800           1           51.182 /_  -12.7 =     49.939 +j   -11.214
800           2           44.289 /_ -127.6 =    -27.014 +j   -35.096
800           3           40.589 /_  117.6 =    -18.793 +j    35.976
800       Resid            11.13 /_  111.8 =     -4.1325 +j    10.335
------------
802           1           51.196 /_  167.3 =    -49.942 +j    11.263
802           2           44.289 /_   52.4 =      27.05 +j    35.069
802           3           40.593 /_  -62.5 =     18.757 +j   -35.999
802       Resid           11.129 /_  -68.2 =      4.1346 +j   -10.332

ELEMENT = "Line.L2"
802           1           51.196 /_  -12.7 =     49.942 +j   -11.263
802           2           43.238 /_ -127.2 =    -26.121 +j   -34.457
802           3           39.747 /_  118.1 =    -18.746 +j    35.049
802       Resid           11.816 /_  115.4 =     -5.0755 +j    10.671
------------
806           1           51.206 /_  167.3 =    -49.944 +j    11.295
806           2           43.238 /_   52.8 =     26.145 +j    34.438
806           3           39.749 /_  -61.9 =     18.722 +j   -35.064
806       Resid           11.816 /_  -64.6 =      5.0769 +j   -10.669

ELEMENT = "Line.L3"
806           1           51.206 /_  -12.7 =     49.944 +j   -11.295
806           2            42.19 /_ -126.7 =    -25.215 +j   -33.826
806           3           38.907 /_  118.7 =    -18.711 +j    34.113
806       Resid           12.547 /_  118.7 =     -6.0186 +j    11.009
------------
808           1           51.378 /_  166.6 =    -49.982 +j    11.893
808           2           42.184 /_   52.5 =     25.663 +j     33.48
808           3           38.947 /_  -62.0 =     18.275 +j   -34.394
808       Resid           12.533 /_  -61.2 =      6.0448 +j   -10.979

ELEMENT = "Line.L4"
808           2          0.59756 /_ -142.3 =   -0.47293 +j  -0.36526
------------
810           2          0.62589 /_   31.8 =    0.53189 +j   0.32991

ELEMENT = "Line.L5"
808           1           51.378 /_  -13.4 =     49.982 +j   -11.893
808           2           41.023 /_ -126.9 =    -24.658 +j   -32.785
808           3           38.947 /_  118.0 =    -18.275 +j    34.394
808       Resid           12.468 /_  124.4 =     -7.0496 +j    10.284
------------
812           1           51.572 /_  165.9 =    -50.017 +j    12.568
812           2           41.012 /_   52.1 =     25.165 +j    32.384
812           3           38.993 /_  -62.9 =     17.773 +j   -34.707
812       Resid           12.453 /_  -55.4 =      7.0799 +j   -10.245

ELEMENT = "Line.L6"
812           1           51.572 /_  -14.1 =     50.017 +j   -12.568
812           2           41.012 /_ -127.9 =    -25.165 +j   -32.384
812           3           38.993 /_  117.1 =    -17.773 +j    34.707
812       Resid           12.453 /_  124.6 =     -7.0799 +j    10.245
------------
814           1           51.721 /_  165.3 =    -50.038 +j    13.088
814           2           41.004 /_   51.4 =     25.555 +j    32.067
814           3           39.028 /_  -63.6 =      17.38 +j   -34.945
814       Resid           12.438 /_  -55.2 =      7.1035 +j    -10.21

ELEMENT = "Line.L7"
814R          1           48.112 /_  -14.7 =     46.547 +j   -12.173
814R          2           39.761 /_ -128.5 =    -24.779 +j   -31.096
814R          3           37.845 /_  116.4 =    -16.854 +j    33.885
814R      Resid           10.593 /_  117.6 =     -4.9135 +j    9.3844
------------
850           1           48.112 /_  165.3 =    -46.547 +j    12.174
850           2           39.761 /_   51.5 =     24.779 +j    31.096
850           3           37.845 /_  -63.6 =     16.854 +j   -33.885
850       Resid           10.593 /_  -62.4 =      4.9135 +j   -9.3844

ELEMENT = "Line.L8"
816           1           13.004 /_  -26.7 =     11.618 +j   -5.8431
------------
818           1           13.012 /_  153.2 =    -11.617 +j    5.8631

ELEMENT = "Line.L9"
816           1           35.499 /_  -10.3 =     34.929 +j    -6.336
816           2           39.657 /_ -128.5 =    -24.695 +j    -31.03
816           3           37.846 /_  116.4 =     -16.85 +j    33.888
816       Resid           7.4743 /_   27.7 =      6.6157 +j    3.4782
------------
824           1           35.536 /_  169.4 =    -34.934 +j    6.5146
824           2           39.654 /_   51.2 =     24.825 +j    30.922
824           3           37.858 /_  -63.8 =     16.717 +j   -33.967
824       Resid           7.4633 /_ -152.3 =     -6.6079 +j   -3.4693

ELEMENT = "Line.L10"
818           1           11.669 /_  -26.5 =     10.439 +j   -5.2145
------------
820           1           11.908 /_  151.0 =    -10.417 +j    5.7707

ELEMENT = "Line.L11"
820           1           5.2711 /_  -28.2 =     4.6438 +j   -2.4939
------------
822           1           5.3414 /_  150.2 =    -4.6374 +j    2.6506

ELEMENT = "Line.L12"
824           2           1.5399 /_ -148.3 =    -1.3106 +j  -0.80841
------------
826           2           1.5554 /_   30.5 =     1.3404 +j   0.78915

ELEMENT = "Line.L13"
824           1           35.536 /_  -10.6 =     34.934 +j   -6.5146
824           2           36.661 /_ -127.0 =    -22.086 +j   -29.262
824           3           37.719 /_  116.3 =    -16.714 +j    33.814
824       Resid           4.3353 /_   26.9 =      3.8655 +j    1.9629
------------
828           1            35.54 /_  169.4 =    -34.935 +j    6.5292
828           2           36.661 /_   52.9 =     22.097 +j    29.253
828           3            37.72 /_  -63.7 =     16.703 +j    -33.82
828       Resid           4.3344 /_ -153.1 =     -3.8649 +j   -1.9622

ELEMENT = "Line.L14"
828           1           35.286 /_  -10.5 =     34.698 +j   -6.4157
828           2           36.661 /_ -127.1 =    -22.097 +j   -29.253
828           3           37.581 /_  116.4 =      -16.7 +j    33.666
828       Resid           4.5617 /_   26.0 =      4.0987 +j    2.0024
------------
830           1            35.36 /_  169.0 =    -34.706 +j    6.7684
830           2           36.645 /_   52.4 =     22.353 +j    29.038
830           3           37.604 /_  -64.1 =     16.436 +j   -33.822
830       Resid           4.5397 /_ -154.1 =     -4.0828 +j   -1.9847

ELEMENT = "Line.L15"
830           1           33.892 /_   -9.8 =     33.396 +j   -5.7819
830           2           35.927 /_ -127.1 =    -21.683 +j   -28.646
830           3           36.295 /_  116.2 =    -16.036 +j     32.56
830       Resid           4.7098 /_   23.4 =      4.3235 +j    1.8681
------------
854           1           33.894 /_  170.2 =    -33.396 +j    5.7908
854           2           35.927 /_   52.9 =      21.69 +j    28.641
854           3           36.295 /_  -63.8 =     16.029 +j   -32.564
854       Resid           4.7093 /_ -156.6 =     -4.3231 +j   -1.8677

ELEMENT = "Line.L16"
832           1           20.949 /_    1.0 =     20.946 +j   0.35612
832           2           23.174 /_ -116.2 =    -10.241 +j   -20.789
832           3           24.108 /_  128.5 =    -15.015 +j    18.862
832       Resid           4.5869 /_   20.0 =      4.3094 +j     1.571
------------
858           1           20.949 /_ -179.3 =    -20.947 +j  -0.26856
858           2           23.153 /_   63.6 =     10.303 +j    20.734
858           3           24.096 /_  -51.7 =     14.949 +j   -18.899
858       Resid           4.5813 /_ -160.0 =     -4.3049 +j   -1.5671

ELEMENT = "Line.L17"
834           1           8.4728 /_  -39.8 =     6.5141 +j    -5.418
834           2            8.372 /_ -155.5 =    -7.6196 +j   -3.4688
834           3           7.8933 /_   95.0 =   -0.68936 +j    7.8631
834       Resid           2.0663 /_   29.7 =      1.7949 +j    1.0237
------------
860           1            8.496 /_  140.1 =    -6.5143 +j     5.454
860           2            8.386 /_   24.3 =     7.6451 +j    3.4464
860           3           7.9061 /_  -85.2 =    0.66223 +j   -7.8783
860       Resid           2.0639 /_ -150.3 =      -1.793 +j   -1.0221

ELEMENT = "Line.L18"
834           1            14.76 /_   34.7 =     12.141 +j    8.3944
834           2           16.313 /_  -95.6 =    -1.5997 +j   -16.234
834           3            15.13 /_  151.0 =    -13.236 +j    7.3293
834       Resid            2.743 /_   10.7 =      2.6951 +j    0.5102
------------
842           1           14.757 /_ -145.4 =    -12.141 +j   -8.3894
842           2            16.31 /_   84.4 =     1.6032 +j    16.231
842           3           15.128 /_  -29.0 =     13.232 +j   -7.3315
842       Resid           2.7427 /_ -169.3 =     -2.6948 +j  -0.50999

ELEMENT = "Line.L19"
836           1           1.1234 /_  -27.0 =     1.0012 +j  -0.50968
836           2            1.554 /_ -154.4 =     -1.401 +j  -0.67227
836           3           1.2607 /_   71.3 =    0.40329 +j    1.1944
836       Resid         0.012921 /_ -105.3 =   -0.0034151 +j -0.012462
------------
840           1           1.1306 /_  152.3 =    -1.0013 +j   0.52498
840           2           1.5597 /_   25.1 =     1.4119 +j   0.66276
840           3           1.2705 /_ -109.1 =   -0.41483 +j   -1.2009
840       Resid         0.013796 /_   72.2 =    0.004222 +j  0.013135

ELEMENT = "Line.L20"
836           1        0.0049819 /_   90.4 =  -3.5741E-005 +j 0.0049818
836           2           2.0877 /_ -149.4 =     -1.797 +j   -1.0627
836           3        0.0043074 /_ -150.8 =  -0.0037594 +j -0.0021025
836       Resid           2.0895 /_   30.5 =      1.8008 +j    1.0598
------------
862           1      4.0018E-011 /_  180.0 =  -4.0018E-011 +j         0
862           2           2.0892 /_   30.5 =     1.8005 +j    1.0596
862           3      4.7294E-011 /_  112.6 =  -1.819E-011 +j 4.3656E-011
862       Resid           2.0892 /_ -149.5 =     -1.8005 +j   -1.0596

ELEMENT = "Line.L21"
842           1           14.625 /_   35.9 =     11.848 +j     8.575
842           2            16.31 /_  -95.6 =    -1.6032 +j   -16.231
842           3           15.128 /_  151.0 =    -13.232 +j    7.3315
842       Resid           3.0055 /_    6.2 =       2.988 +j   0.32436
------------
844           1           14.611 /_ -144.2 =    -11.848 +j    -8.551
844           2           16.297 /_   84.3 =     1.6202 +j    16.216
844           3           15.117 /_  -29.1 =     13.214 +j   -7.3416
844       Resid           3.0041 /_ -173.8 =     -2.9867 +j   -0.3233

ELEMENT = "Line.L22"
844           1           9.8406 /_   78.9 =     1.9023 +j    9.6549
844           2           9.3903 /_  -58.1 =     4.9578 +j   -7.9748
844           3           9.6013 /_ -166.2 =    -9.3237 +j   -2.2923
844       Resid           2.5385 /_   14.0 =      2.4636 +j   0.61213
------------
846           1           9.7771 /_ -101.2 =    -1.9027 +j   -9.5901
846           2           9.3318 /_  121.8 =    -4.9119 +j    7.9345
846           3           9.5473 /_   13.7 =     9.2747 +j     2.265
846       Resid           2.5345 /_ -166.1 =     -2.4602 +j  -0.60929

ELEMENT = "Line.L23"
846           1           9.7771 /_   78.8 =     1.9027 +j    9.5901
846           2           9.5602 /_  -47.4 =     6.4698 +j   -7.0384
846           3           9.7944 /_ -162.0 =    -9.3129 +j   -3.0331
846       Resid           1.0565 /_   27.1 =     0.94045 +j   0.48139
------------
848           1           9.7678 /_ -101.2 =    -1.9027 +j   -9.5807
848           2           9.5513 /_  132.6 =    -6.4631 +j    7.0325
848           3           9.7864 /_   18.0 =     9.3058 +j    3.0292
848       Resid           1.0559 /_ -152.9 =    -0.93996 +j  -0.48098

ELEMENT = "Line.L24"
850           1           48.112 /_  -14.7 =     46.547 +j   -12.174
850           2           39.761 /_ -128.5 =    -24.779 +j   -31.096
850           3           37.845 /_  116.4 =    -16.854 +j    33.885
850       Resid           10.593 /_  117.6 =     -4.9135 +j    9.3844
------------
816           1           48.114 /_  165.3 =    -46.547 +j    12.179
816           2           39.761 /_   51.4 =     24.783 +j    31.093
816           3           37.846 /_  -63.6 =      16.85 +j   -33.888
816       Resid           10.593 /_  -62.4 =      4.9138 +j   -9.3841

ELEMENT = "Line.L25"
852R          1           31.459 /_  -10.9 =     30.896 +j   -5.9279
852R          2           33.337 /_ -128.3 =    -20.669 +j   -26.157
852R          3           33.798 /_  115.4 =    -14.478 +j     30.54
852R      Resid           4.5226 /_   20.0 =      4.2507 +j    1.5443
------------
832           1           31.459 /_  169.1 =    -30.896 +j     5.928
832           2           33.337 /_   51.7 =     20.669 +j    26.157
832           3           33.798 /_  -64.6 =     14.478 +j   -30.541
832       Resid           4.5225 /_ -160.0 =     -4.2507 +j   -1.5443

ELEMENT = "Transformer.XFM1"
832           1           11.677 /_  -32.3 =     9.8671 +j   -6.2435
832           2           11.701 /_ -152.8 =    -10.404 +j    -5.355
832           3           11.611 /_   87.3 =    0.53684 +j    11.598
832           0        0.0003593 /_   39.8 =  0.00027604 +j 0.00022999
832       Resid      1.0026E-007 /_ -159.9 =   -9.4183E-008 +j -3.4386E-008
------------
888           1           69.891 /_  147.7 =     -59.06 +j    37.371
888           2            70.04 /_   27.2 =     62.275 +j    32.053
888           3           69.497 /_  -92.7 =    -3.2132 +j   -69.422
888           0        0.0021506 /_ -140.2 =  -0.0016523 +j -0.0013766
888       Resid      6.0019E-007 /_ -159.9 =   -5.6379E-007 +j -2.0583E-007

ELEMENT = "Line.L26"
854           2          0.24233 /_  -68.5 =   0.088741 +j   -0.2255
------------
856           2           0.1558 /_   30.0 =    0.13491 +j  0.077933

ELEMENT = "Line.L27"
854           1           33.894 /_   -9.8 =     33.396 +j   -5.7908
854           2           35.657 /_ -127.4 =    -21.644 +j   -28.337
854           3           36.295 /_  116.2 =    -16.029 +j    32.564
854       Resid            4.554 /_   20.1 =      4.2769 +j    1.5642
------------
852           1           34.015 /_  169.1 =    -33.406 +j    6.4109
852           2           35.629 /_   51.7 =     22.091 +j    27.954
852           3           36.333 /_  -64.6 =     15.562 +j   -32.832
852       Resid           4.5157 /_ -160.1 =     -4.2472 +j   -1.5337

ELEMENT = "Line.L28"
858           1         0.068733 /_  -15.2 =   0.066314 +j -0.018075
------------
864           1         0.075157 /_  150.2 =  -0.065233 +j  0.037327

ELEMENT = "Line.L29"
858           1           20.521 /_    1.7 =     20.512 +j   0.61846
858           2           22.764 /_ -116.1 =    -10.018 +j   -20.442
858           3           23.644 /_  129.3 =     -14.99 +j    18.285
858       Resid           4.7514 /_   18.9 =      4.4954 +j    1.5385
------------
834           1           20.519 /_ -178.6 =    -20.513 +j  -0.51454
834           2           22.739 /_   63.7 =     10.091 +j    20.377
834           3           23.628 /_  -50.9 =     14.911 +j   -18.329
834       Resid           4.7448 /_ -161.1 =       -4.49 +j   -1.5339

ELEMENT = "Line.L30"
860           1           2.8073 /_  -27.1 =        2.5 +j   -1.2771
860           2           5.1747 /_ -152.8 =    -4.6014 +j   -2.3674
860           3           2.6126 /_   83.4 =    0.30157 +j    2.5951
860       Resid           2.0835 /_   30.2 =      1.7999 +j    1.0494
------------
836           1           2.8296 /_  152.1 =    -2.5003 +j    1.3248
836           2           5.1914 /_   26.8 =     4.6352 +j    2.3378
836           3            2.637 /_  -97.4 =   -0.33755 +j   -2.6153
836       Resid           2.0803 /_ -149.8 =     -1.7974 +j   -1.0473

ELEMENT = "Line.L31"
862           2           1.0324 /_ -148.0 =   -0.87582 +j  -0.54661
------------
838           2           1.0576 /_   29.0 =    0.92486 +j   0.51301

ELEMENT = "Line.L32"
888           1           69.891 /_  -32.3 =      59.06 +j   -37.371
888           2            70.04 /_ -152.8 =    -62.275 +j   -32.053
888           3           69.497 /_   87.3 =     3.2132 +j    69.422
888       Resid        0.0021512 /_   39.8 =   0.0016528 +j 0.0013768
------------
890           1           69.907 /_  147.7 =     -59.06 +j    37.401
890           2            70.05 /_   27.2 =     62.296 +j    32.033
890           3            69.51 /_  -92.7 =    -3.2365 +j   -69.435
890       Resid      1.4492E-013 /_   78.7 =   2.8422E-014 +j 1.4211E-013

ELEMENT = "Capacitor.C844"
844           1           7.1772 /_   86.7 =    0.41473 +j    7.1652
844           2           7.1649 /_  -34.4 =     5.9087 +j   -4.0526
844           3           7.1778 /_ -154.0 =    -6.4504 +j   -3.1485
844       Resid          0.13191 /_   15.8 =     0.12694 +j  0.035875
------------
844           0           7.1772 /_  -93.3 =   -0.41473 +j   -7.1652
844           0           7.1649 /_  145.6 =    -5.9087 +j    4.0526
844           0           7.1778 /_   26.0 =     6.4504 +j    3.1485
844       Resid          0.13191 /_ -164.2 =    -0.12694 +j -0.035875

ELEMENT = "Capacitor.C848"
848           1           10.769 /_   86.6 =    0.63177 +j     10.75
848           2           10.748 /_  -34.5 =     8.8575 +j   -6.0871
848           3            10.77 /_ -154.0 =    -9.6833 +j   -4.7146
848       Resid          0.20068 /_   14.8 =     0.19401 +j  0.051309
------------
848           0           10.769 /_  -93.4 =   -0.63177 +j    -10.75
848           0           10.748 /_  145.5 =    -8.8575 +j    6.0871
848           0            10.77 /_   26.0 =     9.6833 +j    4.7146
848       Resid          0.20068 /_ -165.2 =    -0.19401 +j -0.051309

ELEMENT = "Transformer.REG1A"
814           1           51.721 /_  -14.7 =     50.038 +j   -13.088
814           0           51.721 /_  165.3 =    -50.038 +j    13.087
------------
814R          1           48.112 /_  165.3 =    -46.547 +j    12.173
814R          0           48.112 /_  -14.7 =     46.547 +j   -12.174

ELEMENT = "Transformer.REG1B"
814           2           41.004 /_ -128.6 =    -25.555 +j   -32.067
814           0           41.004 /_   51.4 =     25.554 +j    32.067
------------
814R          2           39.761 /_   51.5 =     24.779 +j    31.096
814R          0           39.761 /_ -128.6 =     -24.78 +j   -31.096

ELEMENT = "Transformer.REG1C"
814           3           39.028 /_  116.4 =     -17.38 +j    34.945
814           0           39.028 /_  -63.6 =      17.38 +j   -34.944
------------
814R          3           37.845 /_  -63.6 =     16.854 +j   -33.885
814R          0           37.845 /_  116.4 =    -16.854 +j    33.885

ELEMENT = "Transformer.REG2A"
852           1           34.015 /_  -10.9 =     33.406 +j   -6.4109
852           0           34.015 /_  169.1 =    -33.406 +j    6.4103
------------
852R          1           31.459 /_  169.1 =    -30.896 +j    5.9279
852R          0           31.459 /_  -10.9 =     30.896 +j   -5.9286

ELEMENT = "Transformer.REG2B"
852           2           35.629 /_ -128.3 =    -22.091 +j   -27.954
852           0           35.629 /_   51.7 =      22.09 +j    27.955
------------
852R          2           33.337 /_   51.7 =     20.669 +j    26.157
852R          0           33.337 /_ -128.3 =    -20.669 +j   -26.157

ELEMENT = "Transformer.REG2C"
852           3           36.333 /_  115.4 =    -15.562 +j    32.832
852           0           36.333 /_  -64.6 =     15.563 +j   -32.831
------------
852R          3           33.798 /_  -64.6 =     14.478 +j    -30.54
852R          0           33.798 /_  115.4 =    -14.477 +j    30.541

= = = = = = = = = = = = = = = = = = =  = = = = = = = = = = =  = =

Power Conversion Elements

  Bus     Phase    Magnitude, A     Angle      (Real)   +j  (Imag)

ELEMENT = "Load.S860"
860           1            1.727 /_  -41.9 =     1.2846 +j   -1.1542
860           2           1.7297 /_ -163.1 =    -1.6548 +j  -0.50356
860           3           1.7267 /_   77.4 =    0.37704 +j     1.685
860           0         0.028178 /_ -104.1 =  -0.0068874 +j -0.027324

ELEMENT = "Load.S840"
840           1          0.79311 /_  -41.2 =     0.5972 +j  -0.52189
840           2          0.79311 /_ -162.3 =   -0.75553 +j  -0.24125
840           3          0.79311 /_   78.2 =    0.16255 +j   0.77627
840           0         0.013793 /_ -107.8 =  -0.0042268 +j  -0.01313

ELEMENT = "Load.S844"
844           1           12.275 /_  -41.2 =     9.2378 +j   -8.0836
844           2           12.254 /_ -162.3 =    -11.675 +j   -3.7216
844           3           12.276 /_   78.1 =     2.5224 +j    12.014
844           0          0.22556 /_ -112.1 =  -0.084923 +j  -0.20896

ELEMENT = "Load.S848"
848           1           1.7273 /_  -42.6 =      1.271 +j   -1.1698
848           2           1.7273 /_ -162.6 =    -1.6486 +j  -0.51575
848           3           1.7273 /_   77.4 =    0.37757 +j    1.6855

ELEMENT = "Load.S830A"
830           1          0.44824 /_    0.5 =    0.44822 +j 0.0042608
830           2          0.44824 /_ -179.5 =   -0.44822 +j -0.0042608

ELEMENT = "Load.S830B"
830           2          0.44613 /_ -119.7 =   -0.22124 +j  -0.38741
830           3          0.44613 /_   60.3 =    0.22124 +j   0.38741

ELEMENT = "Load.S830C"
830           3           1.0725 /_  125.4 =   -0.62138 +j   0.87416
830           1           1.0725 /_  -54.6 =    0.62138 +j  -0.87416

ELEMENT = "Load.S890"
890           1           69.909 /_  -32.3 =     59.062 +j   -37.403
890           2           70.052 /_ -152.8 =    -62.298 +j   -32.034
890           3           69.512 /_   87.3 =      3.236 +j    69.437

ELEMENT = "Load.D802_806SB"
802           2           1.1127 /_ -146.6 =   -0.92926 +j  -0.61197
802           0           1.1127 /_   33.4 =    0.92926 +j   0.61197

ELEMENT = "Load.D802_806RB"
806           2           1.1137 /_ -146.7 =   -0.93063 +j  -0.61182
806           0           1.1137 /_   33.3 =    0.93063 +j   0.61182

ELEMENT = "Load.D802_806SC"
802           3           0.9505 /_   90.7 =  -0.011595 +j   0.95043
802           0           0.9505 /_  -89.3 =   0.011595 +j  -0.95043

ELEMENT = "Load.D802_806RC"
806           3          0.95142 /_   90.7 =  -0.011049 +j   0.95136
806           0          0.95142 /_  -89.3 =   0.011049 +j  -0.95136

ELEMENT = "Load.D808_810SB"
808           2          0.62591 /_ -148.2 =   -0.53192 +j  -0.32989
808           0          0.62591 /_   31.8 =    0.53192 +j   0.32989

ELEMENT = "Load.D808_810RB"
810           2          0.62589 /_ -148.2 =   -0.53189 +j  -0.32991
810           0          0.62589 /_   31.8 =    0.53189 +j   0.32991

ELEMENT = "Load.D818_820SA"
818           1           1.3444 /_  -28.8 =     1.1776 +j  -0.64863
818           0           1.3444 /_  151.2 =    -1.1776 +j   0.64863

ELEMENT = "Load.D818_820RA"
820           1           1.3131 /_  -28.9 =     1.1496 +j   -0.6347
820           0           1.3131 /_  151.1 =    -1.1496 +j    0.6347

ELEMENT = "Load.D820_822SA"
820           1           5.3251 /_  -29.7 =     4.6234 +j   -2.6421
820           0           5.3251 /_  150.3 =    -4.6234 +j    2.6421

ELEMENT = "Load.D820_822RA"
822           1           5.3415 /_  -29.8 =     4.6374 +j   -2.6506
822           0           5.3415 /_  150.2 =    -4.6374 +j    2.6506

ELEMENT = "Load.D816_824SB"
816           2          0.10814 /_ -144.5 =  -0.088059 +j -0.062761
816           0          0.10814 /_   35.5 =   0.088059 +j  0.062761

ELEMENT = "Load.D816_824RB"
824           2          0.10814 /_ -144.7 =  -0.088306 +j -0.062413
824           0          0.10814 /_   35.3 =   0.088306 +j  0.062413

ELEMENT = "Load.D824_826SB"
824           2           1.5554 /_ -149.5 =    -1.3404 +j  -0.78916
824           0           1.5554 /_   30.5 =     1.3404 +j   0.78916

ELEMENT = "Load.D824_826RB"
826           2           1.5554 /_ -149.5 =    -1.3404 +j  -0.78915
826           0           1.5554 /_   30.5 =     1.3404 +j   0.78915

ELEMENT = "Load.D824_828SC"
824           3          0.15365 /_   91.2 =  -0.0031304 +j   0.15362
824           0          0.15365 /_  -88.8 =  0.0031304 +j  -0.15362

ELEMENT = "Load.D824_828RC"
828           3          0.15376 /_   91.1 =  -0.0030787 +j   0.15373
828           0          0.15376 /_  -88.9 =  0.0030787 +j  -0.15373

ELEMENT = "Load.D828_830SA"
828           1          0.26275 /_  -25.6 =    0.23696 +j  -0.11353
828           0          0.26275 /_  154.4 =   -0.23696 +j   0.11353

ELEMENT = "Load.D828_830RA"
830           1          0.26748 /_  -25.9 =     0.2407 +j  -0.11665
830           0          0.26748 /_  154.1 =    -0.2407 +j   0.11665

ELEMENT = "Load.D854_856SB"
854           2          0.15579 /_ -150.0 =   -0.13489 +j -0.077943
854           0          0.15579 /_   30.0 =    0.13489 +j  0.077943

ELEMENT = "Load.D854_856RB"
856           2           0.1558 /_ -150.0 =   -0.13491 +j -0.077934
856           0           0.1558 /_   30.0 =    0.13491 +j  0.077934

ELEMENT = "Load.D832_858SA"
832           1         0.091565 /_  -26.4 =   0.082049 +j -0.040646
832           0         0.091565 /_  153.6 =  -0.082049 +j  0.040646

ELEMENT = "Load.D832_858RA"
858           1         0.091361 /_  -26.4 =   0.081824 +j  -0.04064
858           0         0.091361 /_  153.6 =  -0.081824 +j   0.04064

ELEMENT = "Load.D832_858SB"
832           2         0.026843 /_ -150.8 =  -0.023427 +j -0.013105
832           0         0.026843 /_   29.2 =   0.023427 +j  0.013105

ELEMENT = "Load.D832_858RB"
858           2         0.026783 /_ -150.9 =  -0.023395 +j -0.013038
858           0         0.026783 /_   29.1 =   0.023395 +j  0.013038

ELEMENT = "Load.D832_858SC"
832           3         0.080637 /_   89.7 =  0.00038833 +j  0.080636
832           0         0.080637 /_  -90.3 =  -0.00038833 +j -0.080636

ELEMENT = "Load.D832_858RC"
858           3         0.080467 /_   89.6 =  0.00054057 +j  0.080465
858           0         0.080467 /_  -90.4 =  -0.00054057 +j -0.080465

ELEMENT = "Load.D858_864SB"
858           1         0.075159 /_  -29.8 =   0.065234 +j -0.037328
858           0         0.075159 /_  150.2 =  -0.065234 +j  0.037328

ELEMENT = "Load.D858_864RB"
864           1         0.075159 /_  -29.8 =   0.065234 +j -0.037328
864           0         0.075159 /_  150.2 =  -0.065234 +j  0.037328

ELEMENT = "Load.D858_834SA"
858           1         0.086382 /_   -0.3 =   0.086381 +j -0.00052727
858           2         0.086382 /_  179.7 =  -0.086381 +j 0.00052727

ELEMENT = "Load.D858_834RA"
834           1         0.086591 /_   -0.4 =   0.086589 +j -0.00066626
834           2         0.086591 /_  179.6 =  -0.086589 +j 0.00066626

ELEMENT = "Load.D858_834SB"
858           2          0.33098 /_ -122.1 =   -0.17593 +j  -0.28035
858           3          0.33098 /_   57.9 =    0.17593 +j   0.28035

ELEMENT = "Load.D858_834RB"
834           2          0.33179 /_ -122.2 =   -0.17693 +j  -0.28067
834           3          0.33179 /_   57.8 =    0.17693 +j   0.28067

ELEMENT = "Load.D858_834SC"
858           3          0.28742 /_  118.2 =   -0.13575 +j   0.25334
858           1          0.28742 /_  -61.8 =    0.13575 +j  -0.25334

ELEMENT = "Load.D858_834RC"
834           3          0.28823 /_  118.1 =   -0.13567 +j    0.2543
834           1          0.28823 /_  -61.9 =    0.13567 +j   -0.2543

ELEMENT = "Load.D834_860SA"
834           1          0.37253 /_   -0.4 =    0.37252 +j -0.0028664
834           2          0.37253 /_  179.6 =   -0.37252 +j 0.0028664

ELEMENT = "Load.D834_860RA"
860           1          0.37238 /_   -0.4 =    0.37237 +j -0.0028422
860           2          0.37238 /_  179.6 =   -0.37237 +j 0.0028422

ELEMENT = "Load.D834_860SB"
834           2          0.46197 /_ -120.7 =   -0.23599 +j  -0.39715
834           3          0.46197 /_   59.3 =    0.23599 +j   0.39715

ELEMENT = "Load.D834_860RB"
860           2           0.4618 /_ -120.7 =   -0.23591 +j    -0.397
860           3           0.4618 /_   59.3 =    0.23591 +j     0.397

ELEMENT = "Load.D834_860SC"
834           3           2.5403 /_  119.8 =    -1.2631 +j     2.204
834           1           2.5403 /_  -60.2 =     1.2631 +j    -2.204

ELEMENT = "Load.D834_860RC"
860           3           2.5392 /_  119.8 =    -1.2626 +j     2.203
860           1           2.5392 /_  -60.2 =     1.2626 +j    -2.203

ELEMENT = "Load.D860_836SA"
860           1          0.64968 /_   -0.4 =    0.64966 +j -0.0049586
860           2          0.64968 /_  179.6 =   -0.64966 +j 0.0049586

ELEMENT = "Load.D860_836RA"
836           1          0.64985 /_   -0.4 =    0.64983 +j -0.0049817
836           2          0.64985 /_  179.6 =   -0.64983 +j 0.0049817

ELEMENT = "Load.D860_836SB"
860           2          0.22769 /_ -125.1 =   -0.13098 +j  -0.18624
860           3          0.22769 /_   54.9 =    0.13098 +j   0.18624

ELEMENT = "Load.D860_836RB"
...