test_data/ep/opendss/34Bus/ieee34-1_Power_elem_kVA.txt

CIRCUIT ELEMENT POWER FLOW

(Power Flow into element from indicated Bus)

Power Delivery Elements

  Bus     Phase     kW     +j   kvar         kVA         PF

ELEMENT = "Vsource.SOURCE"
SOURCEBUS     1      -684.9 +j   -155.1      702.2       0.9753
SOURCEBUS     2      -619.4 +j    -71.6      623.5       0.9934
SOURCEBUS     3      -724.4 +j    -56.7      726.6       0.9970
   TERMINAL TOTAL . -2028.6 +j   -283.4     2048.3       0.9904
SOURCEBUS     0         0.0 +j      0.0        0.0       1.0000
SOURCEBUS     0         0.0 +j      0.0        0.0       1.0000
SOURCEBUS     0         0.0 +j      0.0        0.0       1.0000
   TERMINAL TOTAL .     0.0 +j      0.0        0.0       1.0000

ELEMENT = "Transformer.SUBXF"
SOURCEBUS     1       684.9 +j    155.1      702.2       0.9753
SOURCEBUS     2       619.4 +j     71.6      623.5       0.9934
SOURCEBUS     3       724.4 +j     56.7      726.6       0.9970
SOURCEBUS     0         0.0 +j      0.0        0.0       1.0000
   TERMINAL TOTAL .  2028.6 +j    283.4     2048.3       0.9904
800           1      -753.8 +j   -169.3      772.6       0.9757
800           2      -662.7 +j    -88.2      668.5       0.9913
800           3      -612.1 +j    -25.8      612.7       0.9991
800           0         0.0 +j      0.0        0.0       1.0000
   TERMINAL TOTAL . -2028.6 +j   -283.3     2048.3       0.9904

ELEMENT = "Line.L1"
800           1       753.8 +j    169.3      772.6       0.9757
800           2       662.7 +j     88.2      668.5       0.9913
800           3       612.1 +j     25.8      612.7       0.9991
   TERMINAL TOTAL .  2028.6 +j    283.3     2048.3       0.9904
802           1      -752.2 +j   -168.9      770.9       0.9757
802           2      -661.7 +j    -88.0      667.5       0.9913
802           3      -611.3 +j    -25.9      611.8       0.9991
   TERMINAL TOTAL . -2025.2 +j   -282.8     2044.9       0.9904

ELEMENT = "Line.L2"
802           1       752.2 +j    168.9      770.9       0.9757
802           2       646.7 +j     80.5      651.7       0.9923
802           3       598.8 +j     18.9      599.1       0.9995
   TERMINAL TOTAL .  1997.7 +j    268.3     2015.6       0.9911
806           1      -751.1 +j   -168.7      769.8       0.9757
806           2      -646.1 +j    -80.4      651.1       0.9923
806           3      -598.2 +j    -19.0      598.5       0.9995
   TERMINAL TOTAL . -1995.5 +j   -268.0     2013.4       0.9911

ELEMENT = "Line.L3"
806           1       751.1 +j    168.7      769.8       0.9757
806           2       631.1 +j     72.9      635.3       0.9934
806           3       585.7 +j     12.0      585.9       0.9998
   TERMINAL TOTAL .  1968.0 +j    253.5     1984.2       0.9918
808           1      -730.7 +j   -163.9      748.9       0.9758
808           2      -620.4 +j    -70.9      624.5       0.9935
808           3      -576.1 +j    -13.2      576.2       0.9997
   TERMINAL TOTAL . -1927.2 +j   -248.0     1943.1       0.9918

ELEMENT = "Line.L4"
808           2         8.2 +j      3.2        8.8       0.9313
   TERMINAL TOTAL .     8.2 +j      3.2        8.8       0.9313
810           2        -8.2 +j     -4.2        9.3       0.8891
   TERMINAL TOTAL .    -8.2 +j     -4.2        9.3       0.8891

ELEMENT = "Line.L5"
808           1       730.7 +j    163.9      748.9       0.9758
808           2       604.0 +j     63.5      607.3       0.9945
808           3       576.1 +j     13.2      576.2       0.9997
   TERMINAL TOTAL .  1910.8 +j    240.6     1925.8       0.9922
812           1      -707.0 +j   -157.2      724.2       0.9762
812           2      -592.5 +j    -61.6      595.7       0.9946
812           3      -564.5 +j    -14.4      564.7       0.9997
   TERMINAL TOTAL . -1864.0 +j   -233.2     1878.5       0.9923

ELEMENT = "Line.L6"
812           1       707.0 +j    157.2      724.2       0.9762
812           2       592.5 +j     61.6      595.7       0.9946
812           3       564.5 +j     14.4      564.7       0.9997
   TERMINAL TOTAL .  1864.0 +j    233.2     1878.5       0.9923
814           1      -688.0 +j   -151.3      704.4       0.9767
814           2      -583.4 +j    -59.8      586.5       0.9948
814           3      -555.3 +j    -15.1      555.5       0.9996
   TERMINAL TOTAL . -1826.7 +j   -226.3     1840.7       0.9924

ELEMENT = "Line.L7"
814R          1       687.9 +j    151.0      704.3       0.9767
814R          2       583.4 +j     59.6      586.4       0.9948
814R          3       555.2 +j     14.9      555.4       0.9996
   TERMINAL TOTAL .  1826.5 +j    225.6     1840.4       0.9925
850           1      -687.9 +j   -151.0      704.2       0.9767
850           2      -583.4 +j    -59.6      586.4       0.9948
850           3      -555.2 +j    -14.9      555.4       0.9996
   TERMINAL TOTAL . -1826.5 +j   -225.6     1840.4       0.9925

ELEMENT = "Line.L8"
816           1       173.2 +j     78.7      190.3       0.9105
   TERMINAL TOTAL .   173.2 +j     78.7      190.3       0.9105
818           1      -173.1 +j    -78.9      190.2       0.9100
   TERMINAL TOTAL .  -173.1 +j    -78.9      190.2       0.9100

ELEMENT = "Line.L9"
816           1       514.4 +j     72.3      519.4       0.9903
816           2       581.7 +j     59.0      584.7       0.9949
816           3       555.1 +j     15.0      555.3       0.9996
   TERMINAL TOTAL .  1651.2 +j    146.3     1657.7       0.9961
824           1      -510.1 +j    -73.3      515.4       0.9898
824           2      -576.4 +j    -58.7      579.3       0.9949
824           3      -550.7 +j    -14.7      550.9       0.9996
   TERMINAL TOTAL . -1637.2 +j   -146.6     1643.8       0.9960

ELEMENT = "Line.L10"
818           1       155.5 +j     70.1      170.6       0.9117
   TERMINAL TOTAL .   155.5 +j     70.1      170.6       0.9117
820           1      -152.0 +j    -76.3      170.0       0.8938
   TERMINAL TOTAL .  -152.0 +j    -76.3      170.0       0.8938

ELEMENT = "Line.L11"
820           1        67.7 +j     32.9       75.3       0.8996
   TERMINAL TOTAL .    67.7 +j     32.9       75.3       0.8996
822           1       -67.5 +j    -35.0       76.0       0.8878
   TERMINAL TOTAL .   -67.5 +j    -35.0       76.0       0.8878

ELEMENT = "Line.L12"
824           2        20.3 +j      9.6       22.5       0.9034
   TERMINAL TOTAL .    20.3 +j      9.6       22.5       0.9034
826           2       -20.3 +j    -10.2       22.7       0.8944
   TERMINAL TOTAL .   -20.3 +j    -10.2       22.7       0.8944

ELEMENT = "Line.L13"
824           1       510.1 +j     73.3      515.4       0.9898
824           2       534.3 +j     38.3      535.6       0.9974
824           3       548.7 +j     13.7      548.9       0.9997
   TERMINAL TOTAL .  1593.1 +j    125.2     1598.0       0.9969
828           1      -509.8 +j    -73.3      515.0       0.9898
828           2      -533.9 +j    -38.3      535.3       0.9974
828           3      -548.4 +j    -13.7      548.5       0.9997
   TERMINAL TOTAL . -1592.0 +j   -125.3     1597.0       0.9969

ELEMENT = "Line.L14"
828           1       506.3 +j     71.8      511.4       0.9901
828           2       533.9 +j     38.3      535.3       0.9974
828           3       546.4 +j     12.7      546.5       0.9997
   TERMINAL TOTAL .  1586.5 +j    122.8     1591.3       0.9970
830           1      -498.0 +j    -73.3      503.4       0.9893
830           2      -524.8 +j    -38.4      526.2       0.9973
830           3      -537.5 +j    -12.2      537.7       0.9997
   TERMINAL TOTAL . -1560.3 +j   -123.9     1565.2       0.9969

ELEMENT = "Line.L15"
830           1       478.7 +j     60.2      482.5       0.9922
830           2       514.8 +j     33.5      515.9       0.9979
830           3       518.9 +j      9.0      518.9       0.9998
   TERMINAL TOTAL .  1512.4 +j    102.7     1515.9       0.9977
854           1      -478.5 +j    -60.2      482.3       0.9922
854           2      -514.6 +j    -33.5      515.7       0.9979
854           3      -518.7 +j     -9.0      518.7       0.9998
   TERMINAL TOTAL . -1511.8 +j   -102.7     1515.3       0.9977

ELEMENT = "Line.L16"
832           1       311.5 +j    -22.5      312.3      -0.9974
832           2       341.6 +j    -47.9      345.0      -0.9903
832           3       351.2 +j    -76.1      359.3      -0.9773
   TERMINAL TOTAL .  1004.3 +j   -146.5     1015.0      -0.9895
858           1      -310.9 +j     21.5      311.6      -0.9976
858           2      -340.6 +j     47.2      343.9      -0.9906
858           3      -350.4 +j     75.5      358.4      -0.9775
   TERMINAL TOTAL . -1001.9 +j    144.1     1012.2      -0.9898

ELEMENT = "Line.L17"
834           1       101.1 +j     74.7      125.7       0.8042
834           2       106.2 +j     64.1      124.0       0.8562
834           3       109.3 +j     42.0      117.1       0.9333
   TERMINAL TOTAL .   316.6 +j    180.8      364.6       0.8683
860           1      -101.1 +j    -75.2      126.0       0.8022
860           2      -106.1 +j    -64.5      124.2       0.8543
860           3      -109.3 +j    -42.5      117.3       0.9321
   TERMINAL TOTAL .  -316.5 +j   -182.3      365.2       0.8666

ELEMENT = "Line.L18"
834           1       172.7 +j   -134.7      219.0      -0.7886
834           2       211.8 +j   -116.4      241.6      -0.8764
834           3       184.0 +j   -128.7      224.5      -0.8194
   TERMINAL TOTAL .   568.4 +j   -379.7      683.6      -0.8315
842           1      -172.7 +j    134.6      218.9      -0.7887
842           2      -211.7 +j    116.3      241.6      -0.8765
842           3      -183.9 +j    128.6      224.5      -0.8195
   TERMINAL TOTAL .  -568.4 +j    379.5      683.4      -0.8316

ELEMENT = "Line.L19"
836           1        15.3 +j      6.7       16.7       0.9156
836           2        19.9 +j     11.5       23.0       0.8665
836           3        13.3 +j     13.2       18.7       0.7107
   TERMINAL TOTAL .    48.5 +j     31.3       57.7       0.8398
840           1       -15.3 +j     -6.9       16.8       0.9107
840           2       -19.9 +j    -11.7       23.1       0.8622
840           3       -13.3 +j    -13.3       18.8       0.7058
   TERMINAL TOTAL .   -48.5 +j    -32.0       58.1       0.8348

ELEMENT = "Line.L20"
836           1        -0.0 +j     -0.0        0.0       0.0643
836           2        28.0 +j     13.1       30.9       0.9064
836           3        -0.0 +j     -0.0        0.0       0.0553
   TERMINAL TOTAL .    28.0 +j     12.9       30.8       0.9081
862           1        -0.0 +j      0.0        0.0      -0.9984
862           2       -28.0 +j    -13.1       30.9       0.9055
862           3         0.0 +j      0.0        0.0       0.9982
   TERMINAL TOTAL .   -28.0 +j    -13.1       30.9       0.9055

ELEMENT = "Line.L21"
842           1       168.2 +j   -137.1      217.0      -0.7751
842           2       211.7 +j   -116.3      241.6      -0.8765
842           3       183.9 +j   -128.6      224.5      -0.8195
   TERMINAL TOTAL .   563.9 +j   -382.0      681.1      -0.8279
844           1      -168.1 +j    136.8      216.7      -0.7757
844           2      -211.6 +j    116.0      241.3      -0.8768
844           3      -183.9 +j    128.4      224.2      -0.8199
   TERMINAL TOTAL .  -563.6 +j    381.2      680.4      -0.8283

ELEMENT = "Line.L22"
844           1        19.9 +j   -144.6      146.0      -0.1363
844           2        55.9 +j   -127.3      139.0      -0.4017
844           3        30.1 +j   -139.2      142.4      -0.2114
   TERMINAL TOTAL .   105.9 +j   -411.1      424.6      -0.2494
846           1       -19.9 +j    143.7      145.1      -0.1368
846           2       -55.6 +j    126.5      138.2      -0.4027
846           3       -30.0 +j    138.4      141.7      -0.2121
   TERMINAL TOTAL .  -105.5 +j    408.6      422.0      -0.2501

ELEMENT = "Line.L23"
846           1        19.9 +j   -143.7      145.1      -0.1368
846           2        31.7 +j   -138.0      141.6      -0.2236
846           3        20.0 +j   -143.9      145.3      -0.1379
   TERMINAL TOTAL .    71.5 +j   -425.6      431.6      -0.1658
848           1       -19.8 +j    143.6      144.9      -0.1369
848           2       -31.6 +j    137.9      141.4      -0.2236
848           3       -20.0 +j    143.8      145.2      -0.1380
   TERMINAL TOTAL .   -71.5 +j    425.3      431.2      -0.1658

ELEMENT = "Line.L24"
850           1       687.9 +j    151.0      704.2       0.9767
850           2       583.4 +j     59.6      586.4       0.9948
850           3       555.2 +j     14.9      555.4       0.9996
   TERMINAL TOTAL .  1826.5 +j    225.6     1840.4       0.9925
816           1      -687.6 +j   -151.0      704.0       0.9767
816           2      -583.2 +j    -59.6      586.3       0.9948
816           3      -555.1 +j    -15.0      555.3       0.9996
   TERMINAL TOTAL . -1825.9 +j   -225.6     1839.8       0.9925

ELEMENT = "Line.L25"
852R          1       464.8 +j     62.9      469.0       0.9910
852R          2       495.0 +j     35.5      496.3       0.9974
852R          3       503.7 +j      8.1      503.8       0.9999
   TERMINAL TOTAL .  1463.5 +j    106.5     1467.4       0.9974
832           1      -464.8 +j    -62.9      469.0       0.9910
832           2      -495.0 +j    -35.5      496.3       0.9974
832           3      -503.7 +j     -8.1      503.8       0.9999
   TERMINAL TOTAL . -1463.5 +j   -106.6     1467.4       0.9974

ELEMENT = "Transformer.XFM1"
832           1       152.0 +j     84.8      174.1       0.8732
832           2       153.0 +j     83.3      174.2       0.8784
832           3       151.5 +j     83.7      173.1       0.8751
832           0         0.0 +j      0.0        0.0       1.0000
   TERMINAL TOTAL .   456.5 +j    251.8      521.3       0.8756
888           1      -148.8 +j    -77.9      168.0       0.8858
888           2      -149.8 +j    -76.3      168.1       0.8910
888           3      -148.3 +j    -76.9      167.0       0.8877
888           0         0.0 +j      0.0        0.0       1.0000
   TERMINAL TOTAL .  -446.8 +j   -231.2      503.1       0.8882

ELEMENT = "Line.L26"
854           2         2.0 +j     -2.8        3.5      -0.5751
   TERMINAL TOTAL .     2.0 +j     -2.8        3.5      -0.5751
856           2        -2.0 +j     -1.0        2.2       0.8944
   TERMINAL TOTAL .    -2.0 +j     -1.0        2.2       0.8944

ELEMENT = "Line.L27"
854           1       478.5 +j     60.2      482.3       0.9922
854           2       510.6 +j     35.3      511.8       0.9976
854           3       518.7 +j      9.0      518.7       0.9998
   TERMINAL TOTAL .  1507.8 +j    104.6     1511.4       0.9976
852           1      -464.8 +j    -63.0      469.1       0.9909
852           2      -495.0 +j    -35.7      496.3       0.9974
852           3      -503.8 +j     -8.3      503.8       0.9999
   TERMINAL TOTAL . -1463.6 +j   -107.0     1467.5       0.9973

ELEMENT = "Line.L28"
858           1         1.0 +j      0.2        1.0       0.9780
   TERMINAL TOTAL .     1.0 +j      0.2        1.0       0.9780
864           1        -1.0 +j     -0.5        1.1       0.8944
   TERMINAL TOTAL .    -1.0 +j     -0.5        1.1       0.8944

ELEMENT = "Line.L29"
858           1       304.1 +j    -26.3      305.3      -0.9963
858           2       334.6 +j    -48.2      338.1      -0.9898
858           3       342.4 +j    -80.1      351.7      -0.9737
   TERMINAL TOTAL .   981.2 +j   -154.6      993.3      -0.9878
834           1      -303.4 +j     25.1      304.4      -0.9966
834           2      -333.5 +j     47.3      336.8      -0.9901
834           3      -341.5 +j     79.3      350.6      -0.9741
   TERMINAL TOTAL .  -978.4 +j    151.7      990.1      -0.9882

ELEMENT = "Line.L30"
860           1        38.1 +j     16.8       41.6       0.9151
860           2        67.4 +j     36.4       76.6       0.8800
860           3        32.6 +j     20.9       38.8       0.8417
   TERMINAL TOTAL .   138.1 +j     74.1      156.8       0.8812
836           1       -38.1 +j    -17.5       42.0       0.9089
836           2       -67.3 +j    -37.0       76.8       0.8761
836           3       -32.6 +j    -21.5       39.1       0.8348
   TERMINAL TOTAL .  -138.1 +j    -76.1      157.7       0.8759

ELEMENT = "Line.L31"
862           2        14.0 +j      6.1       15.3       0.9163
   TERMINAL TOTAL .    14.0 +j      6.1       15.3       0.9163
838           2       -14.0 +j     -7.0       15.7       0.8944
   TERMINAL TOTAL .   -14.0 +j     -7.0       15.7       0.8944

ELEMENT = "Line.L32"
888           1       148.8 +j     77.9      168.0       0.8858
888           2       149.8 +j     76.3      168.1       0.8910
888           3       148.3 +j     76.9      167.0       0.8877
   TERMINAL TOTAL .   446.8 +j    231.2      503.1       0.8882
890           1      -137.2 +j    -70.2      154.1       0.8901
890           2      -139.8 +j    -68.1      155.5       0.8989
890           3      -137.1 +j    -68.7      153.3       0.8941
   TERMINAL TOTAL .  -414.1 +j   -207.0      463.0       0.8944

ELEMENT = "Capacitor.C844"
844           1         0.0 +j   -106.5      106.5       1.0000
844           2        -0.0 +j   -106.1      106.1       0.0000
844           3        -0.0 +j   -106.5      106.5       0.0000
   TERMINAL TOTAL .    -0.0 +j   -319.0      319.0       0.0000
844           0         0.0 +j      0.0        0.0       1.0000
844           0         0.0 +j      0.0        0.0       1.0000
844           0         0.0 +j      0.0        0.0       1.0000
   TERMINAL TOTAL .     0.0 +j      0.0        0.0       1.0000

ELEMENT = "Capacitor.C848"
848           1         0.0 +j   -159.8      159.8       1.0000
848           2         0.0 +j   -159.1      159.1       1.0000
848           3         0.0 +j   -159.8      159.8      -0.0000
   TERMINAL TOTAL .     0.0 +j   -478.8      478.8      -0.0000
848           0         0.0 +j      0.0        0.0       1.0000
848           0         0.0 +j      0.0        0.0       1.0000
848           0         0.0 +j      0.0        0.0       1.0000
   TERMINAL TOTAL .     0.0 +j      0.0        0.0       1.0000

ELEMENT = "Transformer.REG1A"
814           1       688.0 +j    151.3      704.4       0.9767
814           0         0.0 +j      0.0        0.0       1.0000
   TERMINAL TOTAL .   688.0 +j    151.3      704.4       0.9767
814R          1      -687.9 +j   -151.0      704.3       0.9767
814R          0         0.0 +j      0.0        0.0       1.0000
   TERMINAL TOTAL .  -687.9 +j   -151.0      704.3       0.9767

ELEMENT = "Transformer.REG1B"
814           2       583.4 +j     59.8      586.5       0.9948
814           0         0.0 +j      0.0        0.0       1.0000
   TERMINAL TOTAL .   583.4 +j     59.8      586.5       0.9948
814R          2      -583.4 +j    -59.6      586.4       0.9948
814R          0         0.0 +j      0.0        0.0       1.0000
   TERMINAL TOTAL .  -583.4 +j    -59.6      586.4       0.9948

ELEMENT = "Transformer.REG1C"
814           3       555.3 +j     15.1      555.5       0.9996
814           0         0.0 +j      0.0        0.0       1.0000
   TERMINAL TOTAL .   555.3 +j     15.1      555.5       0.9996
814R          3      -555.2 +j    -14.9      555.4       0.9996
814R          0         0.0 +j      0.0        0.0       1.0000
   TERMINAL TOTAL .  -555.2 +j    -14.9      555.4       0.9996

ELEMENT = "Transformer.REG2A"
852           1       464.8 +j     63.0      469.1       0.9909
852           0         0.0 +j      0.0        0.0       1.0000
   TERMINAL TOTAL .   464.8 +j     63.0      469.1       0.9909
852R          1      -464.8 +j    -62.9      469.0       0.9910
852R          0         0.0 +j      0.0        0.0       1.0000
   TERMINAL TOTAL .  -464.8 +j    -62.9      469.0       0.9910

ELEMENT = "Transformer.REG2B"
852           2       495.0 +j     35.7      496.3       0.9974
852           0         0.0 +j      0.0        0.0       1.0000
   TERMINAL TOTAL .   495.0 +j     35.7      496.3       0.9974
852R          2      -495.0 +j    -35.5      496.3       0.9974
852R          0         0.0 +j      0.0        0.0       1.0000
   TERMINAL TOTAL .  -495.0 +j    -35.5      496.3       0.9974

ELEMENT = "Transformer.REG2C"
852           3       503.8 +j      8.3      503.8       0.9999
852           0         0.0 +j      0.0        0.0       1.0000
   TERMINAL TOTAL .   503.8 +j      8.3      503.8       0.9999
852R          3      -503.7 +j     -8.1      503.8       0.9999
852R          0         0.0 +j      0.0        0.0       1.0000
   TERMINAL TOTAL .  -503.7 +j     -8.1      503.8       0.9999

= = = = = = = = = = = = = = = = = = =  = = = = = = = = = = =  = =

Power Conversion Elements

  Bus     Phase     kW   +j  kvar         kVA         PF

ELEMENT = "Load.S860"
860           1      20.0 +j   16.0       25.6       0.7809
860           2      20.0 +j   16.0       25.6       0.7809
860           3      20.0 +j   16.0       25.6       0.7809
860           0       0.0 +j    0.0        0.0       1.0000
   TERMINAL TOTAL .  60.0 +j   48.0       76.8       0.7809

ELEMENT = "Load.S840"
840           1       9.3 +j    7.2       11.8       0.7894
840           2       9.3 +j    7.2       11.7       0.7894
840           3       9.3 +j    7.2       11.8       0.7894
840           0       0.0 +j    0.0        0.0       1.0000
   TERMINAL TOTAL .  27.8 +j   21.6       35.3       0.7894

ELEMENT = "Load.S844"
844           1     143.7 +j  111.8      182.1       0.7894
844           2     143.2 +j  111.4      181.5       0.7894
844           3     143.7 +j  111.8      182.1       0.7894
844           0       0.0 +j    0.0        0.0       1.0000
   TERMINAL TOTAL . 430.7 +j  335.0      545.6       0.7894

ELEMENT = "Load.S848"
848           1      19.8 +j   16.2       25.6       0.7743
848           2      20.1 +j   15.8       25.6       0.7866
848           3      20.0 +j   16.0       25.6       0.7817
   TERMINAL TOTAL .  60.0 +j   48.0       76.8       0.7809

ELEMENT = "Load.S830A"
830           1       6.4 +j   -0.4        6.4      -0.9984
830           2       3.6 +j    5.3        6.4       0.5584
   TERMINAL TOTAL .  10.0 +j    5.0       11.1       0.8944

ELEMENT = "Load.S830B"
830           2       6.4 +j   -0.4        6.4      -0.9979
830           3       3.5 +j    5.3        6.4       0.5454
   TERMINAL TOTAL .   9.9 +j    4.9       11.0       0.8944

ELEMENT = "Load.S830C"
830           3      15.2 +j   -2.2       15.3      -0.9898
830           1       9.4 +j   12.0       15.3       0.6166
   TERMINAL TOTAL .  24.6 +j    9.8       26.5       0.9285

ELEMENT = "Load.S890"
890           1     137.2 +j   70.2      154.1       0.8901
890           2     139.8 +j   68.1      155.5       0.8989
890           3     137.1 +j   68.7      153.3       0.8941
   TERMINAL TOTAL . 414.1 +j  207.0      463.0       0.8944

ELEMENT = "Load.D802_806SB"
802           2      15.0 +j    7.5       16.8       0.8944
802           0       0.0 +j    0.0        0.0       1.0000
   TERMINAL TOTAL .  15.0 +j    7.5       16.8       0.8944

ELEMENT = "Load.D802_806RB"
806           2      15.0 +j    7.5       16.8       0.8944
806           0       0.0 +j    0.0        0.0       1.0000
   TERMINAL TOTAL .  15.0 +j    7.5       16.8       0.8944

ELEMENT = "Load.D802_806SC"
802           3      12.5 +j    7.0       14.3       0.8725
802           0       0.0 +j    0.0        0.0       1.0000
   TERMINAL TOTAL .  12.5 +j    7.0       14.3       0.8725

ELEMENT = "Load.D802_806RC"
806           3      12.5 +j    7.0       14.3       0.8725
806           0       0.0 +j    0.0        0.0       1.0000
   TERMINAL TOTAL .  12.5 +j    7.0       14.3       0.8725

ELEMENT = "Load.D808_810SB"
808           2       8.2 +j    4.2        9.3       0.8891
808           0       0.0 +j    0.0        0.0       1.0000
   TERMINAL TOTAL .   8.2 +j    4.2        9.3       0.8891

ELEMENT = "Load.D808_810RB"
810           2       8.2 +j    4.2        9.3       0.8891
810           0       0.0 +j    0.0        0.0       1.0000
   TERMINAL TOTAL .   8.2 +j    4.2        9.3       0.8891

ELEMENT = "Load.D818_820SA"
818           1      17.6 +j    8.8       19.7       0.8944
818           0       0.0 +j    0.0        0.0       1.0000
   TERMINAL TOTAL .  17.6 +j    8.8       19.7       0.8944

ELEMENT = "Load.D818_820RA"
820           1      16.8 +j    8.4       18.7       0.8944
820           0       0.0 +j    0.0        0.0       1.0000
   TERMINAL TOTAL .  16.8 +j    8.4       18.7       0.8944

ELEMENT = "Load.D820_822SA"
820           1      67.5 +j   35.0       76.0       0.8878
820           0       0.0 +j    0.0        0.0       1.0000
   TERMINAL TOTAL .  67.5 +j   35.0       76.0       0.8878

ELEMENT = "Load.D820_822RA"
822           1      67.5 +j   35.0       76.0       0.8878
822           0       0.0 +j    0.0        0.0       1.0000
   TERMINAL TOTAL .  67.5 +j   35.0       76.0       0.8878

ELEMENT = "Load.D816_824SB"
816           2       1.5 +j    0.6        1.6       0.9285
816           0       0.0 +j    0.0        0.0       1.0000
   TERMINAL TOTAL .   1.5 +j    0.6        1.6       0.9285

ELEMENT = "Load.D816_824RB"
824           2       1.5 +j    0.6        1.6       0.9285
824           0       0.0 +j    0.0        0.0       1.0000
   TERMINAL TOTAL .   1.5 +j    0.6        1.6       0.9285

ELEMENT = "Load.D824_826SB"
824           2      20.3 +j   10.2       22.7       0.8944
824           0       0.0 +j    0.0        0.0       1.0000
   TERMINAL TOTAL .  20.3 +j   10.2       22.7       0.8944

ELEMENT = "Load.D824_826RB"
826           2      20.3 +j   10.2       22.7       0.8944
826           0       0.0 +j    0.0        0.0       1.0000
   TERMINAL TOTAL .  20.3 +j   10.2       22.7       0.8944

ELEMENT = "Load.D824_828SC"
824           3       2.0 +j    1.0        2.2       0.8944
824           0       0.0 +j    0.0        0.0       1.0000
   TERMINAL TOTAL .   2.0 +j    1.0        2.2       0.8944

ELEMENT = "Load.D824_828RC"
828           3       2.0 +j    1.0        2.2       0.8944
828           0       0.0 +j    0.0        0.0       1.0000
   TERMINAL TOTAL .   2.0 +j    1.0        2.2       0.8944

ELEMENT = "Load.D828_830SA"
828           1       3.5 +j    1.5        3.8       0.9191
828           0       0.0 +j    0.0        0.0       1.0000
   TERMINAL TOTAL .   3.5 +j    1.5        3.8       0.9191

ELEMENT = "Load.D828_830RA"
830           1       3.5 +j    1.5        3.8       0.9191
830           0       0.0 +j    0.0        0.0       1.0000
   TERMINAL TOTAL .   3.5 +j    1.5        3.8       0.9191

ELEMENT = "Load.D854_856SB"
854           2       2.0 +j    1.0        2.2       0.8944
854           0       0.0 +j    0.0        0.0       1.0000
   TERMINAL TOTAL .   2.0 +j    1.0        2.2       0.8944

ELEMENT = "Load.D854_856RB"
856           2       2.0 +j    1.0        2.2       0.8944
856           0       0.0 +j    0.0        0.0       1.0000
   TERMINAL TOTAL .   2.0 +j    1.0        2.2       0.8944

ELEMENT = "Load.D832_858SA"
832           1       1.3 +j    0.5        1.4       0.9191
832           0       0.0 +j    0.0        0.0       1.0000
   TERMINAL TOTAL .   1.3 +j    0.5        1.4       0.9191

ELEMENT = "Load.D832_858RA"
858           1       1.2 +j    0.5        1.4       0.9191
858           0       0.0 +j    0.0        0.0       1.0000
   TERMINAL TOTAL .   1.2 +j    0.5        1.4       0.9191

ELEMENT = "Load.D832_858SB"
832           2       0.4 +j    0.2        0.4       0.8944
832           0       0.0 +j    0.0        0.0       1.0000
   TERMINAL TOTAL .   0.4 +j    0.2        0.4       0.8944

ELEMENT = "Load.D832_858RB"
858           2       0.4 +j    0.2        0.4       0.8944
858           0       0.0 +j    0.0        0.0       1.0000
   TERMINAL TOTAL .   0.4 +j    0.2        0.4       0.8944

ELEMENT = "Load.D832_858SC"
832           3       1.1 +j    0.5        1.2       0.8944
832           0       0.0 +j    0.0        0.0       1.0000
   TERMINAL TOTAL .   1.1 +j    0.5        1.2       0.8944

ELEMENT = "Load.D832_858RC"
858           3       1.1 +j    0.5        1.2       0.8944
858           0       0.0 +j    0.0        0.0       1.0000
   TERMINAL TOTAL .   1.1 +j    0.5        1.2       0.8944

ELEMENT = "Load.D858_864SB"
858           1       1.0 +j    0.5        1.1       0.8944
858           0       0.0 +j    0.0        0.0       1.0000
   TERMINAL TOTAL .   1.0 +j    0.5        1.1       0.8944

ELEMENT = "Load.D858_864RB"
864           1       1.0 +j    0.5        1.1       0.8944
864           0       0.0 +j    0.0        0.0       1.0000
   TERMINAL TOTAL .   1.0 +j    0.5        1.1       0.8944

ELEMENT = "Load.D858_834SA"
858           1       1.3 +j   -0.0        1.3      -0.9988
858           2       0.7 +j    1.1        1.3       0.5585
   TERMINAL TOTAL .   2.0 +j    1.0        2.2       0.8944

ELEMENT = "Load.D858_834RA"
834           1       1.3 +j   -0.0        1.3      -0.9988
834           2       0.7 +j    1.1        1.3       0.5588
   TERMINAL TOTAL .   2.0 +j    1.0        2.2       0.8944

ELEMENT = "Load.D858_834SB"
858           2       4.9 +j   -0.2        4.9      -0.9993
858           3       2.6 +j    4.2        4.9       0.5256
   TERMINAL TOTAL .   7.5 +j    4.0        8.5       0.8824

ELEMENT = "Load.D858_834RB"
834           2       4.9 +j   -0.2        4.9      -0.9993
834           3       2.6 +j    4.2        4.9       0.5258
   TERMINAL TOTAL .   7.5 +j    4.0        8.5       0.8824

ELEMENT = "Load.D858_834SC"
858           3       4.3 +j   -0.1        4.3      -0.9994
858           1       2.2 +j    3.6        4.3       0.5210
   TERMINAL TOTAL .   6.5 +j    3.5        7.4       0.8805

ELEMENT = "Load.D858_834RC"
834           3       4.3 +j   -0.2        4.3      -0.9994
834           1       2.2 +j    3.7        4.3       0.5205
...