test_data/ep/opendss/34Bus/ieee34-1_VLN_Node.Txt

NODE-GROUND VOLTAGES BY BUS & NODE

Bus       Node    V (kV)    Angle      p.u.   Base kV

SOURCEBUS 1       41.829 /_   30.0      1.05    69.000
   -      2       41.829 /_  -90.0      1.05    69.000
   -      3       41.829 /_  150.0      1.05    69.000
800 ..... 1       15.095 /_    0.0      1.05    24.900
   -      2       15.095 /_ -120.0      1.05    24.900
   -      3       15.095 /_  120.0      1.05    24.900
802 ..... 1       15.058 /_   -0.1    1.0475    24.900
   -      2       15.072 /_ -120.1    1.0484    24.900
   -      3       15.073 /_  119.9    1.0485    24.900
806 ..... 1       15.034 /_   -0.1    1.0458    24.900
   -      2       15.058 /_ -120.1    1.0474    24.900
   -      3       15.058 /_  119.9    1.0474    24.900
808 ..... 1       14.576 /_   -0.7    1.0139    24.900
   -      2       14.804 /_ -121.0    1.0298    24.900
   -      3       14.795 /_  119.3    1.0291    24.900
810 ..... 2       14.802 /_ -121.0    1.0296    24.900
812 ..... 1       14.043 /_   -1.6   0.97683    24.900
   -      2       14.524 /_ -121.9    1.0103    24.900
   -      3       14.482 /_  118.6    1.0074    24.900
814 ..... 1        13.62 /_   -2.3    0.9474    24.900
   -      2       14.303 /_ -122.7   0.99496    24.900
   -      3       14.234 /_  118.0    0.9901    24.900
814R .... 1       14.638 /_   -2.3    1.0182    24.900
   -      2       14.748 /_ -122.7    1.0259    24.900
   -      3       14.677 /_  118.0    1.0209    24.900
850 ..... 1       14.638 /_   -2.3    1.0182    24.900
   -      2       14.748 /_ -122.7    1.0259    24.900
   -      3       14.677 /_  118.0    1.0209    24.900
816 ..... 1       14.632 /_   -2.3    1.0178    24.900
   -      2       14.745 /_ -122.7    1.0256    24.900
   -      3       14.673 /_  118.0    1.0206    24.900
818 ..... 1       14.619 /_   -2.3    1.0169    24.900
824 ..... 1       14.503 /_   -2.4    1.0088    24.900
   -      2        14.61 /_ -122.9    1.0163    24.900
   -      3       14.553 /_  117.7    1.0123    24.900
820 ..... 1       14.278 /_   -2.3    0.9932    24.900
822 ..... 1       14.234 /_   -2.3   0.99015    24.900
826 ..... 2       14.607 /_ -122.9    1.0161    24.900
828 ..... 1       14.492 /_   -2.4    1.0081    24.900
   -      2         14.6 /_ -123.0    1.0156    24.900
   -      3       14.543 /_  117.7    1.0116    24.900
830 ..... 1       14.236 /_   -2.7   0.99027    24.900
   -      2       14.359 /_ -123.4   0.99884    24.900
   -      3       14.298 /_  117.2   0.99458    24.900
854 ..... 1        14.23 /_   -2.7   0.98984    24.900
   -      2       14.353 /_ -123.4   0.99842    24.900
   -      3       14.292 /_  117.2   0.99416    24.900
832 ..... 1       14.909 /_   -3.2     1.037    24.900
   -      2       14.886 /_ -124.2    1.0355    24.900
   -      3       14.906 /_  116.3    1.0368    24.900
858 ..... 1       14.875 /_   -3.2    1.0347    24.900
   -      2       14.852 /_ -124.3    1.0331    24.900
   -      3       14.874 /_  116.2    1.0347    24.900
834 ..... 1       14.837 /_   -3.3    1.0321    24.900
   -      2       14.813 /_ -124.4    1.0304    24.900
   -      3       14.838 /_  116.0    1.0322    24.900
860 ..... 1       14.831 /_   -3.3    1.0316    24.900
   -      2       14.807 /_ -124.4      1.03    24.900
   -      3       14.833 /_  116.0    1.0318    24.900
842 ..... 1       14.836 /_   -3.3     1.032    24.900
   -      2       14.812 /_ -124.4    1.0304    24.900
   -      3       14.838 /_  116.0    1.0321    24.900
836 ..... 1       14.828 /_   -3.3    1.0314    24.900
   -      2       14.802 /_ -124.4    1.0296    24.900
   -      3       14.831 /_  116.0    1.0316    24.900
840 ..... 1       14.827 /_   -3.3    1.0314    24.900
   -      2       14.801 /_ -124.4    1.0296    24.900
   -      3        14.83 /_  116.0    1.0316    24.900
862 ..... 1       14.828 /_   -3.3    1.0314    24.900
   -      2       14.802 /_ -124.4    1.0296    24.900
   -      3       14.831 /_  116.0    1.0316    24.900
844 ..... 1       14.833 /_   -3.3    1.0318    24.900
   -      2       14.808 /_ -124.4      1.03    24.900
   -      3       14.834 /_  116.0    1.0319    24.900
846 ..... 1       14.837 /_   -3.4    1.0321    24.900
   -      2       14.808 /_ -124.5      1.03    24.900
   -      3       14.838 /_  116.0    1.0322    24.900
848 ..... 1       14.838 /_   -3.4    1.0321    24.900
   -      2       14.808 /_ -124.5      1.03    24.900
   -      3       14.839 /_  116.0    1.0322    24.900
852R .... 1       14.909 /_   -3.2    1.0371    24.900
   -      2       14.886 /_ -124.2    1.0355    24.900
   -      3       14.906 /_  116.3    1.0368    24.900
888 ..... 1       2.4034 /_   -4.7    1.0007     4.160
   -      2       2.4001 /_ -125.8   0.99929     4.160
   -      3       2.4036 /_  114.8    1.0008     4.160
856 ..... 2       14.352 /_ -123.4   0.99833    24.900
852 ..... 1        13.79 /_   -3.1   0.95926    24.900
   -      2        13.93 /_ -124.2   0.96898    24.900
   -      3       13.867 /_  116.3   0.96462    24.900
864 ..... 1       14.875 /_   -3.2    1.0347    24.900
838 ..... 2       14.799 /_ -124.4    1.0295    24.900
890 ..... 1       2.2043 /_   -5.2   0.91777     4.160
   -      2       2.2205 /_ -126.8   0.92452     4.160
   -      3        2.206 /_  113.9   0.91849     4.160
